14
10486
Cl         3.73200        0.50000        0.00000
C          2.86600        0.00000        0.00000
C          2.00000       -0.50000        0.00000
C          2.36600        0.86600        0.00000
C          3.36600       -0.86600        0.00000
H          1.69000        0.03690        0.00000
H          1.46310       -0.81000        0.00000
H          2.31000       -1.03690        0.00000
H          2.90300        1.17600        0.00000
H          2.05600        1.40300        0.00000
H          1.82910        0.55600        0.00000
H          2.82910       -1.17600        0.00000
H          3.67600       -1.40300        0.00000
H          3.90300       -0.55600        0.00000
