21
11543
O          2.53690       -0.50000        0.00000
C          3.40300        0.00000        0.00000
C          4.26900        0.50000        0.00000
C          5.13500        0.00000        0.00000
C          2.90300        0.86600        0.00000
C          3.90300       -0.86600        0.00000
C          6.00100        0.50000        0.00000
H          4.66750        0.97490        0.00000
H          3.87050        0.97490        0.00000
H          4.73650       -0.47490        0.00000
H          5.53350       -0.47490        0.00000
H          3.43990        1.17600        0.00000
H          2.59300        1.40300        0.00000
H          2.36600        0.55600        0.00000
H          3.36600       -1.17600        0.00000
H          4.21300       -1.40300        0.00000
H          4.43990       -0.55600        0.00000
H          6.31100       -0.03690        0.00000
H          6.53800        0.81000        0.00000
H          5.69100        1.03690        0.00000
H          2.00000       -0.19000        0.00000
