19
6054
O          3.73200        2.09500        0.00000
C          2.86600        0.59500        0.00000
C          2.86600       -0.40500        0.00000
C          3.73200        1.09500        0.00000
C          2.00000       -0.90500        0.00000
C          3.73200       -0.90500        0.00000
C          2.00000       -1.90500        0.00000
C          3.73200       -1.90500        0.00000
C          2.86600       -2.40500        0.00000
H          2.65400        1.17760        0.00000
H          2.25540        0.48730        0.00000
H          3.94410        0.51240        0.00000
H          4.34260        1.20270        0.00000
H          1.46310       -0.59500        0.00000
H          4.26900       -0.59500        0.00000
H          1.46310       -2.21500        0.00000
H          4.26900       -2.21500        0.00000
H          2.86600       -3.02500        0.00000
H          4.26900        2.40500        0.00000
