17
9007
O          3.73200        1.56000        0.00000
O          2.00000       -1.44000        0.00000
C          3.73200        0.56000        0.00000
C          2.86600        0.06000        0.00000
C          4.59810        0.06000        0.00000
C          2.86600       -0.94000        0.00000
C          4.59810       -0.94000        0.00000
C          3.73200       -1.44000        0.00000
C          4.59810        2.06000        0.00000
H          2.32910        0.37000        0.00000
H          5.13500        0.37000        0.00000
H          5.13500       -1.25000        0.00000
H          3.73200       -2.06000        0.00000
H          4.90810        1.52310        0.00000
H          5.13500        2.37000        0.00000
H          4.28810        2.59690        0.00000
H          2.00000       -2.06000        0.00000
