21
7476
O          2.86600       -2.00000        0.00000
O          2.00000        2.50000        0.00000
C          2.86600        1.00000        0.00000
C          2.86600       -1.00000        0.00000
C          2.00000        0.50000        0.00000
C          3.73200        0.50000        0.00000
C          2.00000       -0.50000        0.00000
C          3.73200       -0.50000        0.00000
C          2.86600        2.00000        0.00000
C          3.73200        2.50000        0.00000
C          2.00000       -2.50000        0.00000
H          1.46310        0.81000        0.00000
H          4.26900        0.81000        0.00000
H          1.46310       -0.81000        0.00000
H          4.26900       -0.81000        0.00000
H          4.04200        1.96310        0.00000
H          4.26900        2.81000        0.00000
H          3.42200        3.03690        0.00000
H          1.69000       -1.96310        0.00000
H          1.46310       -2.81000        0.00000
H          2.31000       -3.03690        0.00000
