21
7910
O          2.53690        0.75000        0.00000
C          5.13500        0.25000        0.00000
C          4.26900        0.75000        0.00000
C          3.40300        0.25000        0.00000
C          6.00100        0.75000        0.00000
C          5.13500       -0.75000        0.00000
C          3.40300       -0.75000        0.00000
H          5.13500        0.87000        0.00000
H          4.66750        1.22500        0.00000
H          3.87050        1.22500        0.00000
H          3.40300        1.10000        0.00000
H          6.31100        0.21310        0.00000
H          6.53800        1.06000        0.00000
H          5.69100        1.28690        0.00000
H          4.51500       -0.75000        0.00000
H          5.13500       -1.37000        0.00000
H          5.75500       -0.75000        0.00000
H          2.78300       -0.75000        0.00000
H          3.40300       -1.37000        0.00000
H          4.02300       -0.75000        0.00000
H          2.00000        0.44000        0.00000
