25
7393
O          3.00000       -2.34500        0.00000
C          3.00000        1.65500        0.00000
C          3.00000        0.65500        0.00000
C          3.00000        2.65500        0.00000
C          4.00000        1.65500        0.00000
C          2.00000        1.65500        0.00000
C          3.86600        0.15500        0.00000
C          2.13400        0.15500        0.00000
C          3.86600       -0.84500        0.00000
C          2.13400       -0.84500        0.00000
C          3.00000       -1.34500        0.00000
H          3.62000        2.65500        0.00000
H          3.00000        3.27500        0.00000
H          2.38000        2.65500        0.00000
H          4.00000        1.03500        0.00000
H          4.62000        1.65500        0.00000
H          4.00000        2.27500        0.00000
H          2.00000        2.27500        0.00000
H          1.38000        1.65500        0.00000
H          2.00000        1.03500        0.00000
H          4.40300        0.46500        0.00000
H          1.59700        0.46500        0.00000
H          4.40300       -1.15500        0.00000
H          1.59700       -1.15500        0.00000
H          2.46310       -2.65500        0.00000
