7
177
O          3.73200        0.56000        0.00000
C          2.00000        0.56000        0.00000
C          2.86600        0.06000        0.00000
H          2.31000        1.09690        0.00000
H          1.46310        0.87000        0.00000
H          1.69000        0.02310        0.00000
H          2.86600       -0.56000        0.00000
