8
6324
C          2.00000        0.00000        0.00000
C          3.00000        0.00000        0.00000
H          2.00000        0.62000        0.00000
H          1.38000        0.00000        0.00000
H          2.00000       -0.62000        0.00000
H          3.00000       -0.62000        0.00000
H          3.62000       -0.00000        0.00000
H          3.00000        0.62000        0.00000
