18
7500
C          2.86600        1.25000        0.00000
C          2.86600        0.25000        0.00000
C          2.00000       -0.25000        0.00000
C          3.73200       -0.25000        0.00000
C          3.73200        1.75000        0.00000
C          2.00000       -1.25000        0.00000
C          3.73200       -1.25000        0.00000
C          2.86600       -1.75000        0.00000
H          2.65400        1.83260        0.00000
H          2.25540        1.14230        0.00000
H          1.46310        0.06000        0.00000
H          4.26900        0.06000        0.00000
H          4.04200        1.21310        0.00000
H          4.26900        2.06000        0.00000
H          3.42200        2.28690        0.00000
H          1.46310       -1.56000        0.00000
H          4.26900       -1.56000        0.00000
H          2.86600       -2.37000        0.00000
