30
14109
C          3.73200        1.25000        0.00000
C          3.73200        0.25000        0.00000
C          4.59810        1.75000        0.00000
C          2.86600       -0.25000        0.00000
C          4.59810        2.75000        0.00000
C          2.86600       -1.25000        0.00000
C          5.46410        3.25000        0.00000
C          2.00000       -1.75000        0.00000
C          3.73200       -1.75000        0.00000
C          2.00000       -2.75000        0.00000
C          3.73200       -2.75000        0.00000
C          2.86600       -3.25000        0.00000
H          3.52000        1.83260        0.00000
H          3.12150        1.14230        0.00000
H          3.94410       -0.33260        0.00000
H          4.34260        0.35770        0.00000
H          4.81010        1.16740        0.00000
H          5.20870        1.85770        0.00000
H          2.65400        0.33260        0.00000
H          2.25540       -0.35770        0.00000
H          4.38600        3.33260        0.00000
H          3.98750        2.64230        0.00000
H          5.77410        2.71310        0.00000
H          6.00100        3.56000        0.00000
H          5.15410        3.78690        0.00000
H          1.46310       -1.44000        0.00000
H          4.26900       -1.44000        0.00000
H          1.46310       -3.06000        0.00000
H          4.26900       -3.06000        0.00000
H          2.86600       -3.87000        0.00000
