27
10864
C          3.73200        0.50000        0.00000
C          3.73200        1.50000        0.00000
C          2.86600        0.00000        0.00000
C          4.59810        2.00000        0.00000
C          2.86600       -1.00000        0.00000
C          4.59810        3.00000        0.00000
C          2.00000       -1.50000        0.00000
C          3.73200       -1.50000        0.00000
C          2.00000       -2.50000        0.00000
C          3.73200       -2.50000        0.00000
C          2.86600       -3.00000        0.00000
H          3.94410       -0.08260        0.00000
H          4.34260        0.60770        0.00000
H          3.52000        2.08260        0.00000
H          3.12150        1.39230        0.00000
H          2.65400        0.58260        0.00000
H          2.25540       -0.10770        0.00000
H          4.81010        1.41740        0.00000
H          5.20870        2.10770        0.00000
H          5.21810        3.00000        0.00000
H          4.59810        3.62000        0.00000
H          3.97810        3.00000        0.00000
H          1.46310       -1.19000        0.00000
H          4.26900       -1.19000        0.00000
H          1.46310       -2.81000        0.00000
H          4.26900       -2.81000        0.00000
H          2.86600       -3.62000        0.00000
