9
8252
C          3.73200        0.25000        0.00000
C          2.86600       -0.25000        0.00000
C          2.00000        0.25000        0.00000
H          4.04200       -0.28690        0.00000
H          4.26900        0.56000        0.00000
H          3.42200        0.78690        0.00000
H          2.86600       -0.87000        0.00000
H          2.00000        0.87000        0.00000
H          1.46310       -0.06000        0.00000
