23
12371
Cl         2.00000        0.25000        0.00000
C          5.46410        0.25000        0.00000
C          4.59810       -0.25000        0.00000
C          6.33010       -0.25000        0.00000
C          3.73200        0.25000        0.00000
C          7.19620        0.25000        0.00000
C          2.86600       -0.25000        0.00000
C          8.06220       -0.25000        0.00000
H          5.86260        0.72490        0.00000
H          5.06560        0.72490        0.00000
H          4.19960       -0.72490        0.00000
H          4.99660       -0.72490        0.00000
H          5.93160       -0.72490        0.00000
H          6.72870       -0.72490        0.00000
H          4.13060        0.72490        0.00000
H          3.33350        0.72490        0.00000
H          7.59470        0.72490        0.00000
H          6.79760        0.72490        0.00000
H          2.46750       -0.72490        0.00000
H          3.26460       -0.72490        0.00000
H          7.75220       -0.78690        0.00000
H          8.59910       -0.56000        0.00000
H          8.37220        0.28690        0.00000
