8
12418
Cl         2.00000       -0.50000        0.00000
Cl         2.36600        0.86600        0.00000
Cl         3.36600       -0.86600        0.00000
Cl         4.59810        0.00000        0.00000
C          2.86600        0.00000        0.00000
C          3.73200        0.50000        0.00000
H          4.13060        0.97490        0.00000
H          3.33350        0.97490        0.00000
