8
6591
Cl         2.00000        0.25000        0.00000
Cl         2.86600       -1.25000        0.00000
Cl         4.59810       -0.25000        0.00000
Cl         3.73200        1.25000        0.00000
C          2.86600       -0.25000        0.00000
C          3.73200        0.25000        0.00000
H          2.86600        0.37000        0.00000
H          3.73200       -0.37000        0.00000
