12
10943
Cl         2.00000       -1.50000        0.00000
Cl         3.73200        1.50000        0.00000
C          2.86600        0.00000        0.00000
C          2.86600       -1.00000        0.00000
C          3.73200        0.50000        0.00000
C          3.73200       -1.50000        0.00000
C          4.59810       -0.00000        0.00000
C          4.59810       -1.00000        0.00000
H          2.32910        0.31000        0.00000
H          3.73200       -2.12000        0.00000
H          5.13500        0.31000        0.00000
H          5.13500       -1.31000        0.00000
