13
6557
C          2.86600        0.25000        0.00000
C          2.00000        0.75000        0.00000
C          3.73200        0.75000        0.00000
C          2.86600       -0.75000        0.00000
C          4.59810        0.25000        0.00000
H          2.31000        1.28690        0.00000
H          1.46310        1.06000        0.00000
H          1.69000        0.21310        0.00000
H          3.73200        1.37000        0.00000
H          2.32910       -1.06000        0.00000
H          3.40300       -1.06000        0.00000
H          4.59810       -0.37000        0.00000
H          5.13500        0.56000        0.00000
