21
11264
O          2.53690        0.50000        0.00000
C          4.26900        0.50000        0.00000
C          3.40300        0.00000        0.00000
C          3.40300       -1.00000        0.00000
C          5.13500        0.00000        0.00000
C          4.26900        1.50000        0.00000
C          2.53690       -1.50000        0.00000
H          4.26900       -0.12000        0.00000
H          3.40300        0.62000        0.00000
H          3.61500       -1.58260        0.00000
H          4.01350       -0.89230        0.00000
H          4.82500       -0.53690        0.00000
H          5.67200       -0.31000        0.00000
H          5.44500        0.53690        0.00000
H          4.88900        1.50000        0.00000
H          4.26900        2.12000        0.00000
H          3.64900        1.50000        0.00000
H          2.22690       -0.96310        0.00000
H          2.00000       -1.81000        0.00000
H          2.84690       -2.03690        0.00000
H          2.00000        0.19000        0.00000
