16
10566
C          2.86600       -0.25000        0.00000
C          3.73200        0.25000        0.00000
C          2.00000        0.25000        0.00000
C          4.59810       -0.25000        0.00000
C          2.86600       -1.25000        0.00000
C          3.73200        1.25000        0.00000
H          2.31000        0.78690        0.00000
H          1.46310        0.56000        0.00000
H          1.69000       -0.28690        0.00000
H          4.28810       -0.78690        0.00000
H          5.13500       -0.56000        0.00000
H          4.90810        0.28690        0.00000
H          2.32910       -1.56000        0.00000
H          3.40300       -1.56000        0.00000
H          4.26900        1.56000        0.00000
H          3.19510        1.56000        0.00000
