23
11260
C          3.73200       -0.25000        0.00000
C          4.59810        0.25000        0.00000
C          2.86600        0.25000        0.00000
C          3.73200       -1.25000        0.00000
C          5.46410       -0.25000        0.00000
C          4.59810        1.25000        0.00000
C          2.00000       -0.25000        0.00000
H          4.26900       -0.56000        0.00000
H          5.13500        0.56000        0.00000
H          3.26460        0.72490        0.00000
H          2.46750        0.72490        0.00000
H          3.11200       -1.25000        0.00000
H          3.73200       -1.87000        0.00000
H          4.35200       -1.25000        0.00000
H          5.15410       -0.78690        0.00000
H          6.00100       -0.56000        0.00000
H          5.77410        0.28690        0.00000
H          5.21810        1.25000        0.00000
H          4.59810        1.87000        0.00000
H          3.97810        1.25000        0.00000
H          1.69000        0.28690        0.00000
H          1.46310       -0.56000        0.00000
H          2.31000       -0.78690        0.00000
