16
1732
Cl         2.00000        0.81000        0.00000
O          5.46410       -1.19000        0.00000
C          3.73200        0.81000        0.00000
C          4.59810        0.31000        0.00000
C          2.86600        0.31000        0.00000
C          4.59810       -0.69000        0.00000
C          3.73200        1.81000        0.00000
C          2.86600       -0.69000        0.00000
C          3.73200       -1.19000        0.00000
H          5.13500        0.62000        0.00000
H          4.35200        1.81000        0.00000
H          3.73200        2.43000        0.00000
H          3.11200        1.81000        0.00000
H          2.32910       -1.00000        0.00000
H          3.73200       -1.81000        0.00000
H          5.46410       -1.81000        0.00000
