16
11598
C          3.73200       -0.25000        0.00000
C          4.59810        0.25000        0.00000
C          2.86600        0.25000        0.00000
C          5.46410       -0.25000        0.00000
C          2.00000       -0.25000        0.00000
C          6.33010        0.25000        0.00000
H          3.33350       -0.72490        0.00000
H          4.13060       -0.72490        0.00000
H          4.99660        0.72490        0.00000
H          4.19960        0.72490        0.00000
H          2.86600        0.87000        0.00000
H          5.46410       -0.87000        0.00000
H          1.46310        0.06000        0.00000
H          2.00000       -0.87000        0.00000
H          6.86710       -0.06000        0.00000
H          6.33010        0.87000        0.00000
