24
10870
C          3.73200        1.25000        0.00000
C          2.86600        0.75000        0.00000
C          2.86600       -0.25000        0.00000
C          3.73200        2.25000        0.00000
C          4.59810        0.75000        0.00000
C          2.00000       -0.75000        0.00000
C          3.73200       -0.75000        0.00000
C          2.00000       -1.75000        0.00000
C          3.73200       -1.75000        0.00000
C          2.86600       -2.25000        0.00000
H          3.73200        0.63000        0.00000
H          2.65400        1.33260        0.00000
H          2.25540        0.64230        0.00000
H          4.35200        2.25000        0.00000
H          3.73200        2.87000        0.00000
H          3.11200        2.25000        0.00000
H          4.28810        0.21310        0.00000
H          5.13500        0.44000        0.00000
H          4.90810        1.28690        0.00000
H          1.46310       -0.44000        0.00000
H          4.26900       -0.44000        0.00000
H          1.46310       -2.06000        0.00000
H          4.26900       -2.06000        0.00000
H          2.86600       -2.87000        0.00000
