15
1140
C          2.86600        0.50000        0.00000
C          2.00000        0.00000        0.00000
C          3.73200       -0.00000        0.00000
C          2.86600        1.50000        0.00000
C          2.00000       -1.00000        0.00000
C          3.73200       -1.00000        0.00000
C          2.86600       -1.50000        0.00000
H          1.46310        0.31000        0.00000
H          4.26900        0.31000        0.00000
H          3.48600        1.50000        0.00000
H          2.86600        2.12000        0.00000
H          2.24600        1.50000        0.00000
H          1.46310       -1.31000        0.00000
H          4.26900       -1.31000        0.00000
H          2.86600       -2.12000        0.00000
