34
8163
O          2.86600       -0.75000        0.00000
C          7.19620        0.75000        0.00000
C          6.33010        0.25000        0.00000
C          8.06220        0.25000        0.00000
C          5.46410        0.75000        0.00000
C          8.92820        0.75000        0.00000
C          4.59810        0.25000        0.00000
C          9.79420        0.25000        0.00000
C          3.73200        0.75000        0.00000
C         10.66030        0.75000        0.00000
C          2.86600        0.25000        0.00000
C          2.00000        0.75000        0.00000
H          7.59470        1.22500        0.00000
H          6.79760        1.22500        0.00000
H          5.93160       -0.22490        0.00000
H          6.72870       -0.22490        0.00000
H          7.66360       -0.22490        0.00000
H          8.46070       -0.22490        0.00000
H          5.86260        1.22500        0.00000
H          5.06560        1.22500        0.00000
H          9.32670        1.22500        0.00000
H          8.52970        1.22500        0.00000
H          4.19960       -0.22490        0.00000
H          4.99660       -0.22490        0.00000
H          9.39570       -0.22490        0.00000
H         10.19280       -0.22490        0.00000
H          4.13060        1.22500        0.00000
H          3.33350        1.22500        0.00000
H         10.97030        0.21310        0.00000
H         11.19720        1.06000        0.00000
H         10.35030        1.28690        0.00000
H          2.31000        1.28690        0.00000
H          1.46310        1.06000        0.00000
H          1.69000        0.21310        0.00000
